g03 <<eoi
# rhf/6-311G(2d,2p) 6D 10F UNITS=AU scf=tight Gfinput PUNCH=MO

 C6H6 SCF CALCULATION. 6311G2P basis                                             

0 1
C           -2.28626135     1.31997360      .00000000
C           -2.28626135    -1.31997360      .00000000
C             .00000000    -2.63994721      .00000000
C            2.28626135    -1.31997360      .00000000
C            2.28626135     1.31997360      .00000000
C             .00000000     2.63994721      .00000000
H           -4.06028232     2.34420509      .00000000
H           -4.06028232    -2.34420509      .00000000
H             .00000000    -4.68841018      .00000000
H            4.06028232    -2.34420509      .00000000
H            4.06028232     2.34420509      .00000000
H             .00000000     4.68841018      .00000000


eoi
#
cat fort.7
